# generated using pymatgen
data_Zn2In2S5
_symmetry_space_group_name_H-M   'P 1'
_cell_length_a   3.92201217
_cell_length_b   3.92201217
_cell_length_c   46.89725627
_cell_angle_alpha   90.00000000
_cell_angle_beta   90.00000000
_cell_angle_gamma   120.00000000
_symmetry_Int_Tables_number   1
_chemical_formula_structural   Zn2In2S5
_chemical_formula_sum   'Zn6 In6 S15'
_cell_volume   624.73514966
_cell_formula_units_Z   3
loop_
 _symmetry_equiv_pos_site_id
 _symmetry_equiv_pos_as_xyz
  1  'x, y, z'
loop_
 _atom_type_symbol
 _atom_type_oxidation_number
  Zn2+  2.0
  In3+  3.0
  S2-  -2.0
loop_
 _atom_site_type_symbol
 _atom_site_label
 _atom_site_symmetry_multiplicity
 _atom_site_fract_x
 _atom_site_fract_y
 _atom_site_fract_z
 _atom_site_occupancy
  Zn2+  Zn0  1  0.00000000  0.00000000  0.31180400  1
  Zn2+  Zn1  1  0.33333333  0.66666667  0.14953367  1
  Zn2+  Zn2  1  0.66666667  0.33333333  0.64513733  1
  Zn2+  Zn3  1  0.00000000  0.00000000  0.48286700  1
  Zn2+  Zn4  1  0.33333333  0.66666667  0.97847067  1
  Zn2+  Zn5  1  0.66666667  0.33333333  0.81620033  1
  In3+  In6  1  0.66666667  0.33333333  0.22942933  1
  In3+  In7  1  0.00000000  0.00000000  0.07773500  1
  In3+  In8  1  0.33333333  0.66666667  0.56276267  1
  In3+  In9  1  0.66666667  0.33333333  0.41106833  1
  In3+  In10  1  0.00000000  0.00000000  0.89609600  1
  In3+  In11  1  0.33333333  0.66666667  0.74440167  1
  S2-  S12  1  0.66666667  0.33333333  0.32509333  1
  S2-  S13  1  0.33333333  0.66666667  0.19744067  1
  S2-  S14  1  0.33333333  0.66666667  0.05549267  1
  S2-  S15  1  0.00000000  0.00000000  0.25701600  1
  S2-  S16  1  0.00000000  0.00000000  0.13112200  1
  S2-  S17  1  0.33333333  0.66666667  0.65842667  1
  S2-  S18  1  0.00000000  0.00000000  0.53077400  1
  S2-  S19  1  0.00000000  0.00000000  0.38882600  1
  S2-  S20  1  0.66666667  0.33333333  0.59034933  1
  S2-  S21  1  0.66666667  0.33333333  0.46445533  1
  S2-  S22  1  0.00000000  0.00000000  0.99176000  1
  S2-  S23  1  0.66666667  0.33333333  0.86410733  1
  S2-  S24  1  0.66666667  0.33333333  0.72215933  1
  S2-  S25  1  0.33333333  0.66666667  0.92368267  1
  S2-  S26  1  0.33333333  0.66666667  0.79778867  1
